Input Parameters:
   integrator                     = md-vv
   tinit                          = 0
   dt                             = 0.004
   nsteps                         = -1
   init-step                      = 0
   simulation-part                = 1
   mts                            = false
   comm-mode                      = Linear
   nstcomm                        = 1
   bd-fric                        = 0
   ld-seed                        = -2293797
   emtol                          = 10
   emstep                         = 0.01
   niter                          = 20
   fcstep                         = 0
   nstcgsteep                     = 1000
   nbfgscorr                      = 10
   rtpi                           = 0.05
   nstxout                        = 250
   nstvout                        = 250
   nstfout                        = 0
   nstlog                         = 250
   nstcalcenergy                  = 1
   nstenergy                      = 25000
   nstxout-compressed             = 25000
   compressed-x-precision         = 1000
   cutoff-scheme                  = Verlet
   nstlist                        = 10
   pbc                            = xyz
   periodic-molecules             = false
   verlet-buffer-tolerance        = 0.005
   rlist                          = 0.942
   coulombtype                    = PME
   coulomb-modifier               = Potential-shift
   rcoulomb-switch                = 0
   rcoulomb                       = 0.9
   epsilon-r                      = 1
   epsilon-rf                     = inf
   vdw-type                       = Cut-off
   vdw-modifier                   = Potential-switch
   rvdw-switch                    = 0.89
   rvdw                           = 0.9
   DispCorr                       = No
   table-extension                = 1
   fourierspacing                 = 0.1
   fourier-nx                     = 80
   fourier-ny                     = 80
   fourier-nz                     = 80
   pme-order                      = 4
   ewald-rtol                     = 1e-06
   ewald-rtol-lj                  = 0.001
   lj-pme-comb-rule               = Geometric
   ewald-geometry                 = 0
   epsilon-surface                = 0
   tcoupl                         = V-rescale
   nsttcouple                     = 1
   nh-chain-length                = 0
   print-nose-hoover-chain-variables = false
   pcoupl                         = No
   pcoupltype                     = Isotropic
   nstpcouple                     = -1
   tau-p                          = 1
   compressibility (3x3):
      compressibility[    0]={ 0.00000e+00,  0.00000e+00,  0.00000e+00}
      compressibility[    1]={ 0.00000e+00,  0.00000e+00,  0.00000e+00}
      compressibility[    2]={ 0.00000e+00,  0.00000e+00,  0.00000e+00}
   ref-p (3x3):
      ref-p[    0]={ 0.00000e+00,  0.00000e+00,  0.00000e+00}
      ref-p[    1]={ 0.00000e+00,  0.00000e+00,  0.00000e+00}
      ref-p[    2]={ 0.00000e+00,  0.00000e+00,  0.00000e+00}
   refcoord-scaling               = No
   posres-com (3):
      posres-com[0]= 0.00000e+00
      posres-com[1]= 0.00000e+00
      posres-com[2]= 0.00000e+00
   posres-comB (3):
      posres-comB[0]= 0.00000e+00
      posres-comB[1]= 0.00000e+00
      posres-comB[2]= 0.00000e+00
   QMMM                           = false
qm-opts:
   ngQM                           = 0
   constraint-algorithm           = Lincs
   continuation                   = false
   Shake-SOR                      = false
   shake-tol                      = 0.0001
   lincs-order                    = 12
   lincs-iter                     = 2
   lincs-warnangle                = 30
   nwall                          = 0
   wall-type                      = 9-3
   wall-r-linpot                  = -1
   wall-atomtype[0]               = -1
   wall-atomtype[1]               = -1
   wall-density[0]                = 0
   wall-density[1]                = 0
   wall-ewald-zfac                = 3
   pull                           = false
   awh                            = false
   rotation                       = false
   interactiveMD                  = false
   disre                          = No
   disre-weighting                = Conservative
   disre-mixed                    = false
   dr-fc                          = 1000
   dr-tau                         = 0
   nstdisreout                    = 100
   orire-fc                       = 0
   orire-tau                      = 0
   nstorireout                    = 100
   free-energy                    = expanded
   init-lambda                    = -1
   init-lambda-state              = 0
   delta-lambda                   = 0
   nstdhdl                        = 250
   n-lambdas                      = 99
   separate-dvdl:
       fep-lambdas =   TRUE
      mass-lambdas =   FALSE
      coul-lambdas =   TRUE
       vdw-lambdas =   TRUE
    bonded-lambdas =   FALSE
 restraint-lambdas =   TRUE
temperature-lambdas =   FALSE
all-lambdas:
       fep-lambdas =            0           0           0           0           0           0           0           0           0           0           0           0           0           0           0           0           0           0           0           0           0           0           0           0           0           0           0           0           0           0           0           0           0           0           0           0           0           0           0           0           0           0           0           0           0           0           0           0           0           0           0           0           0           0           0           0           0           0           0           0           0           0           0           0           0           0           0           0           0           0           0           0           0           0           0           0           0           0           0           0           0           0           0           0           0           0           0           0           0           0           0           0           0           0           0           0           0           0           0
      mass-lambdas =            0           0           0           0           0           0           0           0           0           0           0           0           0           0           0           0           0           0           0           0           0           0           0           0           0           0           0           0           0           0           0           0           0           0           0           0           0           0           0           0           0           0           0           0           0           0           0           0           0           0           0           0           0           0           0           0           0           0           0           0           0           0           0           0           0           0           0           0           0           0           0           0           0           0           0           0           0           0           0           0           0           0           0           0           0           0           0           0           0           0           0           0           0           0           0           0           0           0           0
      coul-lambdas =            0      0.0345      0.0706       0.104      0.1435      0.1873      0.2263      0.2661      0.3081      0.3468      0.3942      0.4405      0.4846      0.5361      0.5914      0.6478      0.6984      0.7568      0.8178      0.8702      0.9259      0.9828           1           1           1           1           1           1           1           1           1           1           1           1           1           1           1           1           1           1           1           1           1           1           1           1           1           1           1           1           1           1           1           1           1           1           1           1           1           1           1           1           1           1           1           1           1           1           1           1           1           1           1           1           1           1           1           1           1           1           1           1           1           1           1           1           1           1           1           1           1           1           1           1           1           1           1           1           1
       vdw-lambdas =            0           0           0           0           0           0           0           0           0           0           0           0           0           0           0           0           0           0           0           0           0           0      0.0226       0.057      0.0762      0.0949       0.119       0.146      0.1655      0.1901      0.2126      0.2338      0.2533      0.2711      0.2882      0.3022      0.3175      0.3335      0.3485      0.3644      0.3852      0.4033      0.4169      0.4308      0.4486      0.4643      0.4808      0.5004      0.5138      0.5235      0.5338      0.5469      0.5596      0.5718      0.5851      0.5975      0.6095      0.6238      0.6357      0.6447      0.6533      0.6626      0.6725      0.6827      0.6916       0.699      0.7058      0.7127      0.7204       0.729      0.7376      0.7458      0.7536      0.7611      0.7685      0.7761      0.7839      0.7917      0.7991      0.8062      0.8133      0.8207      0.8283      0.8359      0.8432      0.8502      0.8572      0.8642      0.8718      0.8807       0.892      0.9047      0.9179       0.932      0.9435      0.9536      0.9652      0.9812           1
    bonded-lambdas =            0           0           0           0           0           0           0           0           0           0           0           0           0           0           0           0           0           0           0           0           0           0           0           0           0           0           0           0           0           0           0           0           0           0           0           0           0           0           0           0           0           0           0           0           0           0           0           0           0           0           0           0           0           0           0           0           0           0           0           0           0           0           0           0           0           0           0           0           0           0           0           0           0           0           0           0           0           0           0           0           0           0           0           0           0           0           0           0           0           0           0           0           0           0           0           0           0           0           0
 restraint-lambdas =            1           1           1           1           1           1           1           1           1           1           1           1           1           1           1           1           1           1           1           1           1           1           1           1           1           1           1           1           1           1           1           1           1           1           1           1           1           1           1           1           1           1           1           1           1           1           1           1           1           1           1           1           1           1           1           1           1           1           1           1           1           1           1           1           1           1           1           1           1           1           1           1           1           1           1           1           1           1           1           1           1           1           1           1           1           1           1           1           1           1           1           1           1           1           1           1           1           1           1
temperature-lambdas =            0           0           0           0           0           0           0           0           0           0           0           0           0           0           0           0           0           0           0           0           0           0           0           0           0           0           0           0           0           0           0           0           0           0           0           0           0           0           0           0           0           0           0           0           0           0           0           0           0           0           0           0           0           0           0           0           0           0           0           0           0           0           0           0           0           0           0           0           0           0           0           0           0           0           0           0           0           0           0           0           0           0           0           0           0           0           0           0           0           0           0           0           0           0           0           0           0           0           0
   calc-lambda-neighbors          = -1
   dhdl-print-energy              = total
   sc-alpha                       = 0.5
   sc-power                       = 1
   sc-r-power                     = 6
   sc-sigma                       = 0.3
   sc-sigma-min                   = 0.3
   sc-coul                        = false
   dh-hist-size                   = 0
   dh-hist-spacing                = 0.1
   separate-dhdl-file             = yes
   dhdl-derivatives               = yes
   nstexpanded                    = 250
   lmc-stats                      = wang-landau
   lmc-move                       = metropolized-gibbs
   lmc-weights-equil              = wl-delta
   weight-equil-wl-delta          = 1e-05
   lmc-seed                       = 5281
   mc-temperature                 = 298.15
   lmc-repeats                    = 1
   lmc-gibbsdelta                 = -1
   lmc-forced-nstart              = 0
   symmetrized-transition-matrix  = true
   nst-transition-matrix          = 250000
   mininum-var-min                = 100
   weight-c-range                 = 0
   wl-scale                       = 0.8
   wl-ratio                       = 0.7
   init-wl-delta                  = 10
   wl-oneovert                    = false
      init-lambda-weights (99):
      init-lambda-weights[0]= 0.00000e+00
      init-lambda-weights[1]= 0.00000e+00
      init-lambda-weights[2]= 0.00000e+00
      init-lambda-weights[3]= 0.00000e+00
      init-lambda-weights[4]= 0.00000e+00
      init-lambda-weights[5]= 0.00000e+00
      init-lambda-weights[6]= 0.00000e+00
      init-lambda-weights[7]= 0.00000e+00
      init-lambda-weights[8]= 0.00000e+00
      init-lambda-weights[9]= 0.00000e+00
      init-lambda-weights[10]= 0.00000e+00
      init-lambda-weights[11]= 0.00000e+00
      init-lambda-weights[12]= 0.00000e+00
      init-lambda-weights[13]= 0.00000e+00
      init-lambda-weights[14]= 0.00000e+00
      init-lambda-weights[15]= 0.00000e+00
      init-lambda-weights[16]= 0.00000e+00
      init-lambda-weights[17]= 0.00000e+00
      init-lambda-weights[18]= 0.00000e+00
      init-lambda-weights[19]= 0.00000e+00
      init-lambda-weights[20]= 0.00000e+00
      init-lambda-weights[21]= 0.00000e+00
      init-lambda-weights[22]= 0.00000e+00
      init-lambda-weights[23]= 0.00000e+00
      init-lambda-weights[24]= 0.00000e+00
      init-lambda-weights[25]= 0.00000e+00
      init-lambda-weights[26]= 0.00000e+00
      init-lambda-weights[27]= 0.00000e+00
      init-lambda-weights[28]= 0.00000e+00
      init-lambda-weights[29]= 0.00000e+00
      init-lambda-weights[30]= 0.00000e+00
      init-lambda-weights[31]= 0.00000e+00
      init-lambda-weights[32]= 0.00000e+00
      init-lambda-weights[33]= 0.00000e+00
      init-lambda-weights[34]= 0.00000e+00
      init-lambda-weights[35]= 0.00000e+00
      init-lambda-weights[36]= 0.00000e+00
      init-lambda-weights[37]= 0.00000e+00
      init-lambda-weights[38]= 0.00000e+00
      init-lambda-weights[39]= 0.00000e+00
      init-lambda-weights[40]= 0.00000e+00
      init-lambda-weights[41]= 0.00000e+00
      init-lambda-weights[42]= 0.00000e+00
      init-lambda-weights[43]= 0.00000e+00
      init-lambda-weights[44]= 0.00000e+00
      init-lambda-weights[45]= 0.00000e+00
      init-lambda-weights[46]= 0.00000e+00
      init-lambda-weights[47]= 0.00000e+00
      init-lambda-weights[48]= 0.00000e+00
      init-lambda-weights[49]= 0.00000e+00
      init-lambda-weights[50]= 0.00000e+00
      init-lambda-weights[51]= 0.00000e+00
      init-lambda-weights[52]= 0.00000e+00
      init-lambda-weights[53]= 0.00000e+00
      init-lambda-weights[54]= 0.00000e+00
      init-lambda-weights[55]= 0.00000e+00
      init-lambda-weights[56]= 0.00000e+00
      init-lambda-weights[57]= 0.00000e+00
      init-lambda-weights[58]= 0.00000e+00
      init-lambda-weights[59]= 0.00000e+00
      init-lambda-weights[60]= 0.00000e+00
      init-lambda-weights[61]= 0.00000e+00
      init-lambda-weights[62]= 0.00000e+00
      init-lambda-weights[63]= 0.00000e+00
      init-lambda-weights[64]= 0.00000e+00
      init-lambda-weights[65]= 0.00000e+00
      init-lambda-weights[66]= 0.00000e+00
      init-lambda-weights[67]= 0.00000e+00
      init-lambda-weights[68]= 0.00000e+00
      init-lambda-weights[69]= 0.00000e+00
      init-lambda-weights[70]= 0.00000e+00
      init-lambda-weights[71]= 0.00000e+00
      init-lambda-weights[72]= 0.00000e+00
      init-lambda-weights[73]= 0.00000e+00
      init-lambda-weights[74]= 0.00000e+00
      init-lambda-weights[75]= 0.00000e+00
      init-lambda-weights[76]= 0.00000e+00
      init-lambda-weights[77]= 0.00000e+00
      init-lambda-weights[78]= 0.00000e+00
      init-lambda-weights[79]= 0.00000e+00
      init-lambda-weights[80]= 0.00000e+00
      init-lambda-weights[81]= 0.00000e+00
      init-lambda-weights[82]= 0.00000e+00
      init-lambda-weights[83]= 0.00000e+00
      init-lambda-weights[84]= 0.00000e+00
      init-lambda-weights[85]= 0.00000e+00
      init-lambda-weights[86]= 0.00000e+00
      init-lambda-weights[87]= 0.00000e+00
      init-lambda-weights[88]= 0.00000e+00
      init-lambda-weights[89]= 0.00000e+00
      init-lambda-weights[90]= 0.00000e+00
      init-lambda-weights[91]= 0.00000e+00
      init-lambda-weights[92]= 0.00000e+00
      init-lambda-weights[93]= 0.00000e+00
      init-lambda-weights[94]= 0.00000e+00
      init-lambda-weights[95]= 0.00000e+00
      init-lambda-weights[96]= 0.00000e+00
      init-lambda-weights[97]= 0.00000e+00
      init-lambda-weights[98]= 0.00000e+00
   init-weights                   = false
   cos-acceleration               = 0
   deform (3x3):
      deform[    0]={ 0.00000e+00,  0.00000e+00,  0.00000e+00}
      deform[    1]={ 0.00000e+00,  0.00000e+00,  0.00000e+00}
      deform[    2]={ 0.00000e+00,  0.00000e+00,  0.00000e+00}
   simulated-tempering            = false
   swapcoords                     = no
   userint1                       = 0
   userint2                       = 0
   userint3                       = 0
   userint4                       = 0
   userreal1                      = 0
   userreal2                      = 0
   userreal3                      = 0
   userreal4                      = 0
   applied-forces:
     electric-field:
       x:
         E0                       = 0
         omega                    = 0
         t0                       = 0
         sigma                    = 0
       y:
         E0                       = 0
         omega                    = 0
         t0                       = 0
         sigma                    = 0
       z:
         E0                       = 0
         omega                    = 0
         t0                       = 0
         sigma                    = 0
     density-guided-simulation:
       active                     = false
       group                      = protein
       similarity-measure         = inner-product
       atom-spreading-weight      = unity
       force-constant             = 1e+09
       gaussian-transform-spreading-width = 0.2
       gaussian-transform-spreading-range-in-multiples-of-width = 4
       reference-density-filename = reference.mrc
       nst                        = 1
       normalize-densities        = true
       adaptive-force-scaling     = false
       adaptive-force-scaling-time-constant = 4
       shift-vector               =
       transformation-matrix      =
grpopts:
   nrdf:       74276
   ref-t:      298.15
   tau-t:         0.5
annealing:          No
annealing-npoints:           0
   acc:	           0           0           0
   nfreeze:           N           N           N
   energygrp-flags[  0]: 0

Changing nstlist from 10 to 25, rlist from 0.942 to 1.073

1 GPU selected for this run.
Mapping of GPU IDs to the 2 GPU tasks in the 1 rank on this node:
  PP:0,PME:0
PP tasks will do (non-perturbed) short-ranged interactions on the GPU
PP task will update and constrain coordinates on the CPU
PME tasks will do all aspects on the GPU
Using 1 MPI thread
Using 8 OpenMP threads

Pinning threads with an auto-selected logical core stride of 1
System total charge, top. A: -0.002 top. B: 0.000
Will do PME sum in reciprocal space for electrostatic interactions.

Using a Gaussian width (1/beta) of 0.260197 nm for Ewald
Potential shift: LJ r^-12: 0.000e+00 r^-6: 0.000e+00, Ewald -1.111e-06
Initialized non-bonded Ewald tables, spacing: 8.41e-04 size: 2466

Generated table with 1036 data points for 1-4 COUL.
Tabscale = 500 points/nm
Generated table with 1036 data points for 1-4 LJ6.
Tabscale = 500 points/nm
Generated table with 1036 data points for 1-4 LJ12.
Tabscale = 500 points/nm

Using GPU 8x8 nonbonded short-range kernels

Using a dual 8x8 pair-list setup updated with dynamic, rolling pruning:
  outer list: updated every 25 steps, buffer 0.173 nm, rlist 1.073 nm
  inner list: updated every  4 steps, buffer 0.010 nm, rlist 0.910 nm
At tolerance 0.005 kJ/mol/ps per atom, equivalent classical 1x1 list would be:
  outer list: updated every 25 steps, buffer 0.221 nm, rlist 1.121 nm
  inner list: updated every  4 steps, buffer 0.019 nm, rlist 0.919 nm
There are 40 atoms and 40 charges for free energy perturbation
Removing pbc first time

Initializing LINear Constraint Solver

The number of constraints is 2314

Initial vector of lambda components:[     0.0000     0.0000     0.0000     0.0000     0.0000     1.0000     0.0000 ]

There are: 35933 Atoms

Constraining the starting coordinates (step 0)
Center of mass motion removal mode is Linear
We have the following groups for center of mass motion removal:
  0:  rest
RMS relative constraint deviation after constraining: 1.75e-06
Initial temperature: 299.437 K

Started mdrun on rank 0 Mon Jul 19 00:27:42 2021

           Step           Time
              0        0.00000

   Energies (kJ/mol)
           Bond          Angle    Proper Dih.  Improper Dih.          LJ-14
    7.29903e+02    3.12359e+03    1.43706e+04    1.24833e+02    4.01145e+03
     Coulomb-14        LJ (SR)   Coulomb (SR)   Coul. recip. Position Rest.
    5.03377e+04    6.35641e+04   -6.93560e+05    5.79613e+03    3.18813e-04
      Potential    Kinetic En.   Total Energy  Conserved En.    Temperature
   -5.51502e+05    9.24610e+04   -4.59041e+05   -4.59041e+05    2.99437e+02
   -4.26555e+03    0.00000e+00    1.14119e+02    8.47971e+01    0.00000e+00
    1.17316e-06

	<====  A V E R A G E S  ====>

	Statistics over 34526 steps using 34526 frames

   Energies (kJ/mol)
           Bond          Angle    Proper Dih.  Improper Dih.          LJ-14
    4.02665e+03    1.05640e+04    1.57373e+04    6.02038e+02    4.57114e+03
     Coulomb-14        LJ (SR)   Coulomb (SR)   Coul. recip. Position Rest.
    5.00846e+04    5.04116e+04   -5.89321e+05    5.27348e+03    1.94534e+01
      Potential    Kinetic En.   Total Energy  Conserved En.    Temperature
   -4.48031e+05    9.17279e+04   -3.56303e+05   -4.56502e+05    2.97063e+02
 Pressure (bar)    dVremain/dl      dVcoul/dl       dVvdw/dl dVrestraint/dl
   -1.16263e+03    0.00000e+00    4.85451e+01    5.98002e+01    0.00000e+00
   Constr. rmsd
    0.00000e+00

   Total Virial (kJ/mol)
    4.43201e+04    2.68241e+01   -9.17021e+00
    2.67845e+01    4.42203e+04   -3.38926e+01
   -9.22363e+00   -3.39095e+01    4.45293e+04

   Pressure (bar)
   -1.16006e+03   -2.52064e+00   -1.14678e+00
   -2.51730e+00   -1.15278e+03    2.81433e+00
   -1.14227e+00    2.81576e+00   -1.17505e+03
